<?xml version="1.0" encoding="UTF-8"?>

<!-- generated on 04/07/20 13:32:47 by Eclipse SUMO polyconvert Version 1.3.1
<configuration xmlns:xsi="http://www.w3.org/2001/XMLSchema-instance" xsi:noNamespaceSchemaLocation="http://sumo.dlr.de/xsd/polyconvertConfiguration.xsd">

    <input>
        <net-file value="map.net.xml"/>
        <osm-files value="map.osm"/>
        <type-file value="typemap.xml"/>
    </input>

    <output>
        <output-file value="map.poly.xml"/>
    </output>

    <processing>
        <poi-layer-offset value="5"/>
    </processing>

</configuration>
-->

<additional xmlns:xsi="http://www.w3.org/2001/XMLSchema-instance" xsi:noNamespaceSchemaLocation="http://sumo.dlr.de/xsd/additional_file.xsd">
    <location netOffset="-330468.18,-3837209.38" convBoundary="-478.94,-622.86,4673.74,2748.55" origBoundary="-82.855796,34.657764,-82.799115,34.687664" projParameter="+proj=utm +zone=17 +ellps=WGS84 +datum=WGS84 +units=m +no_defs"/>

    <poly id="12837437" type="building" color="255,230,230" fill="1" layer="-1.00" shape="981.934315,1418.903567 923.574724,1440.395716 921.598444,1435.073071 899.338049,1443.268573 891.857110,1423.124114 918.879227,1413.177329 922.687056,1423.425852 940.741113,1416.771807 932.363716,1394.213952 948.624335,1388.225111 957.040374,1410.893220 976.314577,1403.795345 981.934315,1418.903567"/>
    <poly id="13470725" type="tourism" color="207,245,201" fill="1" layer="-2.00" shape="-9.751893,1988.115699 36.275788,1961.673778 27.038340,1887.441586 -3.295065,1818.356888 -31.588214,1788.477205 -108.261913,1735.411611 -156.368158,1705.219968 -185.187523,1683.150074 -224.647873,1762.183797 -222.764798,1821.661925 -137.580855,1876.478305 -58.461904,1943.944128 -43.019909,1956.818638 -9.751893,1988.115699"/>
    <poly id="14054771" type="building" color="255,230,230" fill="1" layer="-1.00" shape="1238.578016,1645.598079 1246.120448,1644.550677 1246.647491,1647.314748 1253.666190,1646.698510 1253.168660,1644.044848 1258.419872,1643.005979 1252.895292,1595.909718 1232.487485,1598.634194 1234.620595,1614.571709 1233.231945,1614.818944 1234.622596,1629.749291 1236.625130,1629.490853 1238.578016,1645.598079"/>
    <poly id="14054774" type="building" color="255,230,230" fill="1" layer="-1.00" shape="1247.807419,1697.319814 1250.950746,1722.913521 1269.451233,1720.656565 1268.589541,1713.616026 1265.877515,1691.564766 1274.739095,1690.482222 1271.951005,1667.777759 1231.721355,1672.672355 1234.940202,1698.885987 1247.807419,1697.319814"/>
    <poly id="14054776" type="building" color="255,230,230" fill="1" layer="-1.00" shape="1364.947097,1741.836456 1374.764009,1740.370459 1384.014273,1738.992468 1380.217290,1713.721306 1379.372811,1708.122764 1378.672984,1703.420259 1378.276886,1700.798027 1386.311422,1699.597534 1380.825072,1663.107106 1380.313829,1659.699247 1383.778102,1659.181200 1388.110785,1658.536373 1384.688537,1635.721412 1383.489663,1627.777247 1373.480622,1629.268920 1362.913886,1630.837341 1367.847565,1663.654384 1368.703238,1669.363669 1361.180559,1670.488274 1366.260709,1704.301174 1367.147509,1710.209596 1360.346872,1711.221185 1364.947097,1741.836456"/>
    <poly id="14054781" type="building" color="255,230,230" fill="1" layer="-1.00" shape="1412.755363,1537.786839 1430.299230,1535.825035 1428.203633,1517.401590 1411.037216,1519.456369 1412.755363,1537.786839"/>
    <poly id="14054784" type="building" color="255,230,230" fill="1" layer="-1.00" shape="949.751066,1717.630393 955.626876,1716.668688 986.526457,1712.309509 985.502018,1703.396942 984.338399,1693.388537 952.213222,1697.892166 947.185044,1698.594293 949.751066,1717.630393"/>
    <poly id="14054785" type="building" color="255,230,230" fill="1" layer="-1.00" shape="943.260263,1669.908391 946.897996,1669.353723 955.646790,1668.117607 979.834878,1664.624445 978.455406,1654.841881 977.317886,1646.763490 948.795945,1649.836611 943.855272,1650.814507 940.305507,1651.167862 943.260263,1669.908391"/>
    <poly id="14054787" type="building" color="255,230,230" fill="1" layer="-1.00" shape="936.565771,1622.578433 939.896052,1622.251279 951.000502,1620.517214 973.141586,1617.349924 972.165619,1608.081440 971.134108,1598.281423 936.706985,1602.727307 933.596598,1603.050441 936.565771,1622.578433"/>
    <poly id="14054791" type="building" color="255,230,230" fill="1" layer="-1.00" shape="915.728638,1778.774377 955.914797,1773.535226 952.242066,1745.599157 912.055785,1750.838319 915.728638,1778.774377"/>
    <poly id="14054792" type="building" color="255,230,230" fill="1" layer="-1.00" shape="897.883870,1700.094769 903.333480,1699.884175 936.517865,1694.662040 935.181081,1685.211542 933.918166,1676.292244 900.785205,1681.824098 895.284094,1681.724981 897.883870,1700.094769"/>
    <poly id="14054793" type="building" color="255,230,230" fill="1" layer="-1.00" shape="892.164228,1652.957805 896.812472,1652.528872 929.475134,1647.837715 928.309512,1639.227292 926.864871,1628.891186 894.007665,1633.974223 889.628810,1634.098672 892.164228,1652.957805"/>
    <poly id="14055079" type="building" color="255,230,230" fill="1" layer="-1.00" shape="1130.564705,1832.941001 1141.551830,1908.617445 1148.068682,1907.633057 1152.640396,1949.199316 1167.845629,1947.701268 1164.531760,1919.303710 1150.894826,1830.006886 1130.564705,1832.941001"/>
    <poly id="144679968" type="building" color="255,230,230" fill="1" layer="-1.00" shape="1044.030539,1478.013545 1039.456078,1449.372777 1011.653383,1453.719520 1044.030539,1478.013545"/>
    <poly id="144821220" type="forest" color="140,196,107" fill="1" layer="-4.00" shape="1164.771278,1877.705080 1158.265045,1831.081647 1162.442788,1829.485388 1164.992539,1835.607523 1174.818696,1834.152232 1171.701449,1838.613761 1168.341786,1844.355614 1169.500742,1854.120033 1170.174098,1863.893317 1170.069675,1871.728124 1169.907137,1876.379795 1164.771278,1877.705080"/>
    <poly id="144821230" type="forest" color="140,196,107" fill="1" layer="-4.00" shape="1178.998723,1822.137962 1187.457125,1826.088612 1195.880137,1829.607220 1200.089515,1831.250071 1198.224123,1824.960110 1195.563343,1813.758595 1194.507057,1809.617343 1186.111861,1810.635983 1180.277250,1811.341612 1180.402126,1816.675910 1178.998723,1822.137962"/>
    <poly id="144846490" type="forest" color="140,196,107" fill="1" layer="-3.00" shape="2422.341762,1777.511939 2423.775312,1825.769982 2457.424458,1825.459851 2473.537042,1834.065878 2491.207153,1833.534994 2506.514640,1837.163058 2521.997447,1839.844925 2566.533835,1855.680467 2585.816204,1861.688613 2602.015944,1859.930861 2612.156002,1833.785806 2617.013753,1830.757794 2622.596846,1839.954069 2634.927402,1842.670988 2651.595115,1839.928526 2663.173897,1843.646510 2676.044480,1832.141455 2677.783853,1819.872577 2689.955426,1813.295125 2697.976072,1821.459917 2704.918902,1824.762565 2714.581842,1815.290444 2714.236764,1796.213881 2718.147720,1784.416087 2729.622769,1777.329842 2725.497562,1766.642643 2717.494687,1758.954575 2700.323221,1761.217857 2687.867807,1768.321875 2672.305278,1761.236590 2666.287722,1744.237510 2676.030381,1739.168488 2698.988924,1741.671024 2712.812702,1744.849205 2717.122938,1738.402907 2716.327244,1721.775321 2726.547065,1715.721395 2745.774686,1708.051170 2751.296688,1697.655470 2749.202827,1690.836843 2725.308140,1690.803027 2716.052040,1679.199023 2716.378356,1670.383967 2698.242533,1662.413227 2691.909521,1665.467877 2690.154950,1715.403372 2666.322328,1718.796837 2618.676886,1721.611709 2580.157721,1722.774924 2559.903203,1717.760706 2538.994559,1703.449953 2510.885805,1687.838426 2477.947695,1671.770819 2441.482425,1656.299771 2431.660010,1656.965903 2427.025684,1683.455190 2421.208527,1758.471825 2422.341762,1777.511939"/>
    <poly id="144846491" type="tourism" color="207,245,201" fill="1" layer="-2.00" shape="2550.187430,1561.313270 2562.041929,1564.038731 2574.459599,1560.407867 2593.408017,1558.567088 2611.091957,1557.758847 2616.391643,1551.793857 2602.787383,1549.621445 2572.128595,1551.130551 2554.921544,1550.942807 2550.187430,1561.313270"/>
    <poly id="144846492" type="tourism" color="207,245,201" fill="1" layer="-2.00" shape="1861.903242,1576.973755 1857.123786,1570.692285 1859.180721,1562.333858 1866.809372,1553.419257 1874.053255,1541.993159 1881.034936,1533.789298 1888.252503,1538.561961 1886.937408,1547.395062 1880.158566,1553.143301 1872.187641,1560.876979 1870.854823,1568.734072 1864.574927,1575.205504 1861.903242,1576.973755"/>
    <poly id="144846493" type="tourism" color="207,245,201" fill="1" layer="-2.00" shape="2527.035566,1558.792388 2512.980700,1559.069093 2515.365349,1555.109493 2525.436488,1551.975938 2533.333260,1553.785606 2527.035566,1558.792388"/>
    <poly id="144846495" type="tourism" color="207,245,201" fill="1" layer="-2.00" shape="2227.846207,1543.656504 2291.125850,1553.303932 2346.078899,1557.666334 2373.691707,1562.058573 2387.064498,1562.581739 2420.741621,1564.268061 2422.341079,1592.852234 2421.229241,1616.470744 2420.942955,1628.491460 2415.276342,1645.557892 2410.315108,1681.317165 2407.567078,1711.244918 2406.455333,1731.324235 2405.086725,1737.229214 2366.176989,1733.529842 2349.871001,1728.932673 2346.565853,1709.410484 2332.679733,1702.805717 2326.592968,1692.642399 2328.756021,1675.961165 2335.874255,1662.130187 2331.174056,1646.549715 2346.861374,1644.312659 2348.043786,1628.137376 2339.581283,1622.421702 2321.384793,1622.252338 2312.401264,1614.593471 2308.293001,1604.871360 2312.540787,1595.497001 2310.888262,1585.741458 2296.392234,1572.302377 2287.938297,1567.063662 2268.151473,1560.577079 2249.972755,1561.394952 2242.481775,1554.674313 2225.742799,1553.513455 2215.460914,1556.140810 2214.092953,1544.394168 2227.846207,1543.656504"/>
    <poly id="144846497" type="tourism" color="207,245,201" fill="1" layer="-2.00" shape="2537.419147,1480.786415 2533.302241,1470.576208 2539.034661,1461.175089 2542.779463,1450.833632 2542.116530,1441.049050 2537.045596,1432.819869 2521.806494,1421.868006 2513.556796,1411.710452 2505.772979,1405.516358 2496.842119,1401.273513 2495.465022,1390.015182 2499.491206,1384.583546 2511.682937,1389.721484 2518.847676,1405.257404 2534.881167,1421.609074 2553.006172,1434.516843 2567.291519,1446.961610 2564.269823,1459.275909 2551.674275,1469.289428 2543.257793,1477.252451 2537.419147,1480.786415"/>
    <poly id="144846501" type="tourism" color="207,245,201" fill="1" layer="-2.00" shape="1872.101674,1718.489964 1888.319053,1718.195148 1896.541664,1710.700984 1890.611153,1699.580941 1890.196345,1686.341400 1886.997062,1672.697593 1882.956397,1657.138602 1883.495639,1641.929050 1881.312202,1630.219446 1883.986906,1615.004360 1870.337072,1611.846422 1873.036095,1634.774495 1873.655376,1659.260352 1872.856385,1678.834849 1871.532376,1704.820538 1872.101674,1718.489964"/>
    <poly id="144846502" type="forest" color="140,196,107" fill="1" layer="-4.00" shape="1869.781515,1604.478541 1878.650208,1605.293651 1883.291729,1603.988859 1883.207253,1599.341712 1875.733761,1593.597374 1870.650803,1598.349554 1869.781515,1604.478541"/>
    <poly id="144846503" type="tourism" color="207,245,201" fill="1" layer="-2.00" shape="2350.655022,1321.666269 2374.046944,1337.396144 2392.755969,1355.196877 2417.844912,1366.458236 2436.811031,1382.268448 2445.830547,1391.402378 2434.754292,1404.328621 2422.165210,1404.578896 2403.245850,1401.970522 2378.121402,1388.746094 2360.091169,1370.467112 2346.320056,1354.052526 2336.936627,1341.031053 2335.135514,1333.696840 2338.403059,1324.340274 2343.261326,1320.823957 2350.655022,1321.666269"/>
    <poly id="144846504" type="tourism" color="207,245,201" fill="1" layer="-2.00" shape="1852.329281,1550.476138 1865.495485,1535.092498 1872.483325,1523.193982 1873.321375,1515.345885 1879.200994,1504.499329 1883.759624,1494.597651 1870.501075,1495.326831 1862.384942,1508.688171 1856.448676,1524.484008 1850.726335,1533.896504 1842.361019,1533.549337 1839.561925,1541.921261 1852.329281,1550.476138"/>
    <poly id="144846507" type="tourism" color="207,245,201" fill="1" layer="-2.00" shape="2950.763244,1635.315375 2965.178992,1643.864141 2974.586179,1647.610649 2977.951718,1643.145298 2969.948966,1635.457016 2956.548845,1628.842554 2950.763244,1635.315375"/>
    <poly id="144846510" type="tourism" color="207,245,201" fill="1" layer="-2.00" shape="2901.730742,1615.154625 2930.473668,1627.849064 2941.584653,1633.062537 2943.732024,1627.121402 2933.493159,1620.971317 2911.675286,1610.592574 2903.292700,1609.279530 2901.730742,1615.154625"/>
    <poly id="144846512" type="tourism" color="207,245,201" fill="1" layer="-2.00" shape="1834.884423,1213.070470 1823.630887,1216.215172 1817.119743,1209.477034 1813.973680,1198.772375 1839.936719,1139.564973 1856.057426,1133.391724 1883.431721,1124.573129 1881.390543,1138.345464 1871.393211,1156.145557 1859.523677,1179.360626 1849.351647,1197.629903 1842.674983,1209.012404 1834.884423,1213.070470"/>
    <poly id="144846513" type="parking" color="184,184,179" fill="1" layer="-1.00" shape="1833.045822,1409.380321 1862.830390,1415.717536 1895.323030,1427.331080 1942.581755,1448.040341 1972.778575,1468.505053 1994.763579,1478.412641 2010.463487,1485.938129 2031.414332,1493.412656 2040.582312,1483.449544 2059.362405,1488.988699 2062.588057,1504.096573 2083.841682,1510.079028 2119.962673,1516.612656 2191.116012,1524.751850 2352.216873,1543.853147 2417.600265,1543.156352 2424.250815,1530.310263 2427.361587,1515.841925 2426.905605,1501.804336 2431.405407,1486.600776 2432.481194,1475.153777 2431.824891,1460.176772 2435.197245,1452.049851 2433.366167,1446.091905 2432.936767,1440.097470 2431.593635,1433.753466 2408.926028,1433.698199 2361.304213,1410.086384 2336.606007,1387.512627 2323.529107,1360.856201 2307.734955,1341.050090 2290.957560,1327.175292 2278.060618,1320.563735 2264.783806,1320.804500 2256.862263,1344.934851 2245.910627,1364.216321 2222.609609,1380.792820 2212.558509,1396.152674 2203.002027,1411.492474 2195.000851,1431.219750 2204.603783,1445.723792 2192.512105,1456.716107 2178.424039,1465.780905 2164.300271,1473.381876 2121.414030,1467.303704 2125.742336,1444.192569 2119.388643,1419.344848 2113.194971,1403.314503 2107.211007,1389.244113 2034.507084,1338.685371 2016.147304,1302.306465 1996.025168,1304.147535 1978.299409,1312.269092 1966.328801,1320.840863 1953.057996,1293.666971 1939.170938,1269.910365 1925.695630,1231.490199 1904.585812,1179.495742 1901.765734,1159.487778 1909.076037,1146.651501 1941.310223,1129.867531 1976.686967,1133.185650 2005.300150,1120.406303 2052.761205,1125.435725 2067.726481,1137.401455 2072.975786,1155.423777 2113.256664,1153.216984 2135.473558,1158.194688 2157.690625,1163.183535 2174.465939,1166.307409 2122.070353,1106.537015 2183.521093,1051.579477 2223.857170,1097.367754 2254.803440,1122.745848 2266.649438,1125.471118 2259.335707,1112.367801 2240.298362,1091.666452 2220.756658,1071.462453 2203.509999,1060.048220 2191.860054,1050.451863 2176.947833,1041.913227 2151.327182,1012.023051 2140.707691,995.573734 2130.052058,994.812959 2118.898832,1013.099698 2123.247247,1036.031147 2119.677404,1046.402893 2096.674766,1052.689483 2062.463167,1064.083478 1951.150922,1100.409846 1915.214038,1114.698183 1889.149096,1159.251096 1884.486726,1173.037787 1873.793526,1189.363838 1861.103398,1221.891184 1855.211763,1239.649955 1855.843071,1257.234676 1858.512312,1268.436181 1846.532875,1276.520103 1838.300815,1283.515198 1837.315093,1309.960705 1831.124162,1321.334391 1837.028337,1330.990384 1846.066470,1341.110854 1850.785362,1357.667120 1861.887396,1363.844746 1867.903911,1370.103735 1881.844261,1361.995285 1896.868382,1349.972920 1911.545645,1336.514574 1926.649858,1328.895402 1938.593754,1336.511227 1940.705725,1344.793876 1873.028919,1381.271696 1852.909822,1393.353447 1839.272090,1400.457919 1833.045822,1409.380321"/>
    <poly id="144846514" type="forest" color="140,196,107" fill="1" layer="-4.00" shape="1480.680713,994.915388 1557.585768,1024.679723 1561.868996,1017.778476 1543.366937,1002.915638 1542.458235,998.316783 1545.064760,995.983804 1532.138758,977.768689 1526.954698,980.503647 1504.334935,969.055387 1502.213634,965.821084 1496.518415,966.157816 1490.589756,972.800606 1480.680713,994.915388"/>
    <poly id="144846519" type="tourism" color="207,245,201" fill="1" layer="-2.00" shape="2649.401335,1555.601077 2685.794090,1555.918963 2711.384123,1556.931645 2739.932756,1558.856125 2759.894560,1564.397492 2782.879970,1568.364266 2797.216385,1572.509645 2803.514005,1567.491961 2789.308978,1559.461071 2765.946409,1556.433050 2731.399647,1549.224969 2706.277891,1546.739267 2684.645562,1546.642423 2666.641981,1546.502164 2651.203096,1546.271155 2644.437055,1552.750822 2649.401335,1555.601077"/>
    <poly id="144846523" type="forest" color="140,196,107" fill="1" layer="-4.00" shape="2159.838531,1535.104920 2175.120300,1537.279531 2189.604814,1539.967893 2196.213055,1552.085430 2196.381889,1561.390807 2188.784103,1549.291225 2179.358745,1544.569492 2170.489836,1543.743001 2165.128428,1546.292219 2156.375360,1551.343823 2145.942720,1545.664071 2150.234966,1538.241488 2159.838531,1535.104920"/>
    <poly id="144846525" type="tourism" color="207,245,201" fill="1" layer="-2.00" shape="1744.283120,1262.647270 1763.667514,1259.043919 1777.404206,1229.149017 1790.120801,1206.661766 1795.509451,1183.930573 1803.791436,1170.100198 1820.264271,1138.935208 1821.428149,1121.783826 1811.690501,1100.426060 1799.755364,1092.810220 1791.048228,1064.111230 1789.386039,1036.216089 1786.538576,1015.221218 1793.559078,995.522499 1803.124058,980.659190 1807.407461,972.748448 1803.428327,943.453127 1806.040874,924.810907 1819.501464,907.924125 1829.824820,897.962016 1845.869141,897.648164 1870.921855,896.216463 1881.784542,889.195803 1883.896661,879.826780 1879.337400,872.564952 1865.689981,879.181344 1853.005392,884.304662 1831.483300,881.289820 1813.276614,880.644487 1794.003893,884.889148 1781.849569,892.454853 1775.534027,896.486131 1762.813515,900.134635 1757.510739,896.347931 1764.048553,886.898384 1776.265195,882.759784 1776.644438,876.395623 1777.526879,870.987552 1793.242357,869.725446 1814.920962,872.271378 1829.178908,872.012166 1837.005250,869.906130 1834.644173,865.577741 1821.651301,863.827993 1774.069249,860.798925 1736.189655,859.535187 1678.609763,857.154446 1614.522123,857.311164 1581.068017,856.455673 1553.221368,856.984885 1495.811124,863.422492 1470.592706,865.324206 1462.855336,872.310613 1478.102859,872.532093 1522.271561,867.811122 1552.208982,864.814000 1569.002868,868.912811 1591.626570,868.989084 1614.682622,866.128538 1625.290583,872.314910 1621.484326,879.240722 1599.832512,878.170351 1575.108942,880.062772 1562.415330,885.186662 1541.945143,885.581603 1529.675065,886.781392 1524.554655,892.510763 1526.543105,906.065578 1526.708943,920.707586 1524.660716,937.087411 1522.187830,947.261928 1522.520003,952.414923 1527.311809,955.822487 1537.238165,951.259293 1538.316140,938.979998 1543.085268,930.572109 1559.514305,932.258893 1570.557874,927.131754 1575.910625,924.094194 1585.292512,926.375313 1590.097492,938.059326 1600.000822,941.795469 1614.039551,939.065788 1622.410550,930.126402 1630.432557,921.148997 1625.481819,909.511997 1622.379868,901.247424 1627.460237,892.811730 1638.687476,888.202786 1647.713345,888.548875 1658.075990,890.324053 1664.092450,897.060002 1669.694698,907.731020 1673.398380,921.864852 1677.996803,940.841887 1688.996178,950.915446 1702.875025,957.031292 1710.491656,970.106517 1717.435499,973.408456 1728.520320,978.609928 1731.154180,988.358642 1733.190029,1001.513214 1725.479429,1009.974507 1714.172200,1010.180209 1705.391904,1014.256383 1703.818920,1026.544654 1706.541867,1040.685246 1701.826134,1052.032173 1689.716506,1062.038041 1682.059481,1073.438501 1685.102471,1088.039242 1694.890132,1103.060901 1706.535654,1121.454842 1718.047269,1132.994702 1723.208085,1146.114611 1727.000109,1165.616693 1731.290864,1194.395974 1733.327000,1225.202226 1739.035728,1241.740440 1744.283120,1262.647270"/>
    <poly id="144846528" type="tourism" color="207,245,201" fill="1" layer="-2.00" shape="2005.380666,1612.310299 2019.329226,1622.330626 2026.423554,1633.951057 2033.170792,1644.124390 2033.437493,1658.808926 2033.360701,1664.169059 2034.189900,1672.985379 2034.447537,1687.170818 2047.406921,1696.732075 2052.000836,1706.434169 2055.615764,1712.193238 2062.446042,1708.774078 2076.799642,1710.321874 2084.629030,1708.926013 2081.734823,1701.467455 2076.290244,1689.839221 2090.804665,1686.613402 2103.760881,1686.411462 2100.852009,1661.989379 2094.101545,1642.041634 2076.142465,1627.689425 2045.200422,1612.075233 2031.920939,1602.053810 2026.796630,1573.245193 2023.994602,1554.213207 2030.730271,1536.494686 2029.403118,1517.924080 2014.464960,1507.422443 1992.506843,1498.989920 1977.056101,1487.521318 1967.310274,1482.827804 1962.330935,1489.253344 1971.146223,1504.781090 1979.470227,1529.592936 1986.001988,1547.070467 1980.924932,1565.269250 1977.417758,1579.068204 1970.732185,1589.951527 1980.865787,1589.257065 1991.624424,1585.633353 1998.291950,1591.414612 2001.950102,1603.585613 2005.380666,1612.310299"/>
    <poly id="144846529" type="tourism" color="207,245,201" fill="1" layer="-2.00" shape="2300.159952,1167.422671 2337.527782,1210.824381 2380.656355,1257.028631 2391.894314,1264.147463 2390.772004,1256.334966 2338.304153,1199.549219 2313.481103,1170.121254 2307.447407,1162.397802 2300.159952,1167.422671"/>
    <poly id="144846530" type="forest" color="140,196,107" fill="1" layer="-4.00" shape="2324.343799,1730.859968 2332.903943,1741.965867 2344.837602,1749.571264 2364.517816,1750.201932 2380.275722,1751.868969 2386.327012,1760.080298 2323.303428,1754.865528 2319.159520,1743.679563 2324.343799,1730.859968"/>
    <poly id="144846531" type="tourism" color="207,245,201" fill="1" layer="-2.00" shape="2184.433210,1688.852571 2177.445794,1683.110276 2173.823525,1672.902328 2173.583815,1659.692904 2167.505499,1650.006599 2162.911379,1640.792622 2157.805072,1630.123445 2151.205378,1618.982112 2147.061515,1607.308044 2150.805815,1596.966406 2162.067822,1594.310093 2172.527167,1601.464969 2177.571482,1608.718116 2177.899938,1626.818685 2185.595291,1644.297409 2187.893345,1662.850405 2192.549615,1675.491523 2195.191688,1685.728358 2184.433210,1688.852571"/>
    <poly id="144846535" type="tourism" color="207,245,201" fill="1" layer="-2.00" shape="2439.317606,1629.390040 2434.395593,1618.251412 2436.277115,1597.148545 2438.386829,1578.016396 2438.227280,1569.210119 2445.010855,1563.706305 2452.925841,1566.014835 2448.861552,1575.407986 2444.154413,1586.754353 2441.991240,1602.936287 2442.292652,1619.572830 2444.714918,1628.315923 2439.317606,1629.390040"/>
    <poly id="144846538" type="tourism" color="207,245,201" fill="1" layer="-2.00" shape="1928.442110,1616.659386 1943.211313,1617.866590 1950.560288,1616.257454 1953.377094,1609.360840 1951.751084,1600.581192 1939.878671,1596.880498 1932.017263,1597.023358 1928.758814,1607.356268 1928.442110,1616.659386"/>
    <poly id="144846539" type="tourism" color="207,245,201" fill="1" layer="-2.00" shape="1887.428099,1588.003860 1883.889657,1582.931332 1886.728895,1576.766538 1894.887814,1569.794989 1899.939958,1563.345894 1895.736823,1575.659751 1891.305585,1585.004376 1887.428099,1588.003860"/>
    <poly id="144846542" type="tourism" color="207,245,201" fill="1" layer="-2.00" shape="2261.619080,1715.355416 2251.124525,1706.248424 2249.365321,1690.614641 2244.205826,1677.006295 2242.482217,1663.335626 2226.741520,1663.133001 2215.038245,1668.238075 2205.091486,1662.050189 2206.812887,1648.317020 2218.738122,1655.445347 2236.359716,1651.209251 2234.698061,1640.954621 2226.632682,1629.850922 2219.150280,1624.106481 2207.746233,1618.932454 2206.040582,1605.749630 2213.751061,1597.288729 2230.481109,1597.961557 2237.204740,1616.445374 2243.273947,1625.632626 2262.097868,1633.612207 2275.498335,1640.214589 2285.320766,1639.548292 2296.777722,1648.149707 2298.996222,1661.822502 2298.811978,1678.956028 2297.682762,1698.059355 2287.993856,1705.579734 2275.327624,1712.166695 2261.619080,1715.355416"/>
    <poly id="144846544" type="tourism" color="207,245,201" fill="1" layer="-2.00" shape="2815.492306,1577.071995 2839.958868,1586.925578 2852.837567,1592.572974 2855.002876,1587.119657 2843.554884,1579.493741 2823.282932,1573.014760 2815.907144,1573.148087 2815.492306,1577.071995"/>
    <poly id="177983745" type="building" color="255,230,230" fill="1" layer="-1.00" shape="1893.761384,1621.783066 1914.899170,1621.398869 1915.242761,1613.071596 1907.341160,1611.506623 1906.710367,1617.143104 1900.805307,1617.006350 1901.202308,1611.618202 1895.027480,1610.254842 1893.761384,1621.783066"/>
    <poly id="177983747" type="building" color="255,230,230" fill="1" layer="-1.00" shape="1909.989674,1527.271870 1912.574244,1534.325507 1916.348992,1533.236191 1931.657926,1528.830751 1928.512079,1518.126057 1922.417215,1521.165820 1923.985909,1526.285254 1918.862869,1528.331025 1917.298808,1523.466685 1909.989674,1527.271870"/>
    <poly id="177983748" type="building" color="255,230,230" fill="1" layer="-1.00" shape="1895.199267,1606.091205 1897.437087,1594.068247 1901.632919,1594.968317 1918.144004,1599.727412 1916.629024,1608.153637 1908.255113,1607.329497 1908.894778,1602.181023 1903.470976,1601.292175 1902.345612,1606.948739 1895.199267,1606.091205"/>
    <poly id="177983749" type="building" color="255,230,230" fill="1" layer="-1.00" shape="1906.798698,1581.660632 1912.014686,1571.114620 1926.169481,1578.856653 1930.149171,1581.480343 1926.617017,1589.865560 1918.450366,1586.829798 1921.320666,1582.373036 1915.613991,1579.536653 1913.247336,1584.472430 1906.798698,1581.660632"/>
    <poly id="177983750" type="building" color="255,230,230" fill="1" layer="-1.00" shape="1908.964733,1524.838569 1904.176325,1518.568333 1908.008436,1515.591872 1920.618991,1506.442545 1927.469111,1515.204915 1921.140655,1518.504101 1918.353244,1513.906078 1912.766663,1517.679955 1915.293383,1521.550464 1908.964733,1524.838569"/>
    <poly id="177983751" type="building" color="255,230,230" fill="1" layer="-1.00" shape="1907.552599,1568.677220 1912.014686,1571.114620 1926.169481,1578.856653 1930.920841,1569.472945 1924.224609,1566.654540 1922.114203,1572.073824 1916.911368,1569.727545 1918.545027,1564.805091 1911.111353,1561.756013 1907.552599,1568.677220"/>
    <poly id="177983752" type="building" color="255,230,230" fill="1" layer="-1.00" shape="1911.566015,1559.539903 1913.150600,1552.421588 1917.337580,1552.833660 1934.078458,1555.103398 1932.104074,1566.999514 1924.675042,1564.205519 1926.551459,1559.023476 1920.619757,1557.422691 1919.237917,1562.584652 1911.566015,1559.539903"/>
    <poly id="177983753" type="building" color="255,230,230" fill="1" layer="-1.00" shape="1903.287698,1510.019372 1908.008436,1515.591872 1920.618991,1506.442545 1924.318915,1503.756956 1917.025956,1494.836217 1912.194543,1499.816786 1916.196441,1503.660486 1911.617150,1508.392391 1907.858115,1504.799457 1903.287698,1510.019372"/>
    <poly id="177983754" type="building" color="255,230,230" fill="1" layer="-1.00" shape="1918.594853,1540.817436 1916.348992,1533.236191 1931.657926,1528.830751 1936.052104,1527.530482 1938.725828,1538.987102 1932.243992,1539.393351 1931.022582,1534.722488 1925.387031,1535.801235 1925.966260,1540.439389 1918.594853,1540.817436"/>
    <poly id="177983755" type="building" color="255,230,230" fill="1" layer="-1.00" shape="1901.632919,1594.968317 1918.144004,1599.727412 1922.391489,1600.948299 1925.203938,1593.308409 1917.276009,1589.791237 1915.642355,1594.713692 1910.448198,1592.844332 1911.834462,1587.926372 1905.142965,1584.863811 1901.632919,1594.968317"/>
    <poly id="177983756" type="parking" color="184,184,179" fill="1" layer="-1.00" shape="1880.731838,1527.703815 1890.778854,1538.882165 1889.764368,1550.638803 1881.812980,1573.061509 1897.744076,1578.685405 1910.877652,1550.410378 1909.505635,1536.444892 1901.482590,1521.646146 1892.352068,1512.481456 1880.731838,1527.703815"/>
    <poly id="177983757" type="building" color="255,230,230" fill="1" layer="-1.00" shape="1917.337580,1552.833660 1934.078458,1555.103398 1938.038589,1555.641643 1939.052934,1543.873921 1932.423695,1544.238471 1932.282927,1550.110126 1925.635955,1549.498670 1925.798890,1544.847028 1917.442661,1544.998890 1917.337580,1552.833660"/>
    <poly id="178880681" type="building" color="255,230,230" fill="1" layer="-1.00" shape="1986.162393,1743.576887 1998.223860,1744.578183 1997.930499,1728.429627 1997.850510,1724.026484 1989.719665,1722.953778 1988.157130,1731.791358 1993.324395,1732.185651 1992.936715,1737.584718 1987.274486,1737.188324 1986.162393,1743.576887"/>
    <poly id="178880682" type="building" color="255,230,230" fill="1" layer="-1.00" shape="1950.511882,1554.072531 1951.594157,1546.042491 1967.576832,1545.929611 1972.240560,1545.844879 1971.477994,1557.852104 1964.574778,1556.757108 1965.461868,1551.604145 1959.305042,1550.728580 1958.656382,1555.888307 1950.511882,1554.072531"/>
    <poly id="178880684" type="building" color="255,230,230" fill="1" layer="-1.00" shape="1936.833034,1586.140698 1954.964236,1596.329011 1959.441626,1585.485797 1953.496445,1583.141891 1951.143072,1588.809667 1945.445480,1586.472362 1948.055104,1581.288096 1940.868841,1578.234500 1936.833034,1586.140698"/>
    <poly id="178880686" type="building" color="255,230,230" fill="1" layer="-1.00" shape="1928.524947,1656.521152 1934.412243,1655.681911 1934.318923,1650.546759 1940.458043,1649.947030 1940.295106,1654.598671 1948.872017,1652.978314 1948.972389,1645.387713 1927.189864,1645.594942 1928.524947,1656.521152"/>