<?xml version="1.0" encoding="UTF-8"?>

<!-- generated on 06/12/20 01:31:32 by Eclipse SUMO netedit Version 1.3.1
<configuration xmlns:xsi="http://www.w3.org/2001/XMLSchema-instance" xsi:noNamespaceSchemaLocation="http://sumo.dlr.de/xsd/netconvertConfiguration.xsd">

    <input>
        <sumo-net-file value="D:\Program%20Files%20(x86)\Sumo\map.net.xml"/>
    </input>

    <output>
        <output-file value="D:\Program%20Files%20(x86)\Sumo\map.net.xml"/>
    </output>

    <processing>
        <geometry.max-grade.fix value="false"/>
        <offset.disable-normalization value="true"/>
        <opposites.guess.fix-lengths value="true"/>
        <lefthand value="false"/>
    </processing>

    <junctions>
        <no-turnarounds value="true"/>
        <junctions.corner-detail value="5"/>
        <junctions.limit-turn-speed value="5.5"/>
        <rectangular-lane-cut value="false"/>
    </junctions>

    <pedestrian>
        <walkingareas value="false"/>
    </pedestrian>

</configuration>
-->

<net version="1.3" junctionCornerDetail="5" limitTurnSpeed="5.50" xmlns:xsi="http://www.w3.org/2001/XMLSchema-instance" xsi:noNamespaceSchemaLocation="http://sumo.dlr.de/xsd/net_file.xsd">

    <location netOffset="-330468.18,-3837209.38" convBoundary="0.00,0.00,3141.24,2748.55" origBoundary="-82.854312,34.663061,-82.810630,34.687664" projParameter="+proj=utm +zone=17 +ellps=WGS84 +datum=WGS84 +units=m +no_defs"/>

    <type id="highway.bridleway" priority="1" numLanes="1" speed="2.78" allow="pedestrian" oneway="1" width="2.00"/>
    <type id="highway.bus_guideway" priority="1" numLanes="1" speed="27.78" allow="bus" oneway="1"/>
    <type id="highway.cycleway" priority="1" numLanes="1" speed="8.33" allow="bicycle" oneway="0" width="1.00"/>
    <type id="highway.footway" priority="1" numLanes="1" speed="2.78" allow="pedestrian" oneway="1" width="2.00"/>
    <type id="highway.ford" priority="1" numLanes="1" speed="2.78" allow="army" oneway="0"/>
    <type id="highway.living_street" priority="2" numLanes="1" speed="2.78" disallow="tram rail_urban rail rail_electric rail_fast ship" oneway="0"/>
    <type id="highway.motorway" priority="14" numLanes="2" speed="39.44" allow="private emergency authority army vip passenger hov taxi bus coach delivery truck trailer motorcycle evehicle custom1 custom2" oneway="1"/>
    <type id="highway.motorway_link" priority="9" numLanes="1" speed="22.22" allow="private emergency authority army vip passenger hov taxi bus coach delivery truck trailer motorcycle evehicle custom1 custom2" oneway="1"/>
    <type id="highway.path" priority="1" numLanes="1" speed="2.78" allow="pedestrian bicycle" oneway="1" width="2.00"/>
    <type id="highway.pedestrian" priority="1" numLanes="1" speed="2.78" allow="pedestrian" oneway="1" width="2.00"/>
    <type id="highway.primary" priority="12" numLanes="2" speed="27.78" disallow="tram rail_urban rail rail_electric rail_fast ship" oneway="0"/>
    <type id="highway.primary_link" priority="7" numLanes="1" speed="22.22" disallow="tram rail_urban rail rail_electric rail_fast ship" oneway="0"/>
    <type id="highway.raceway" priority="15" numLanes="2" speed="83.33" allow="vip" oneway="0"/>
    <type id="highway.residential" priority="3" numLanes="1" speed="13.89" disallow="tram rail_urban rail rail_electric rail_fast ship" oneway="0"/>
    <type id="highway.secondary" priority="11" numLanes="2" speed="27.78" disallow="tram rail_urban rail rail_electric rail_fast ship" oneway="0"/>
    <type id="highway.secondary_link" priority="6" numLanes="1" speed="22.22" disallow="tram rail_urban rail rail_electric rail_fast ship" oneway="0"/>
    <type id="highway.service" priority="1" numLanes="1" speed="5.56" allow="pedestrian delivery bicycle" oneway="0"/>
    <type id="highway.stairs" priority="1" numLanes="1" speed="1.39" allow="pedestrian" oneway="1" width="2.00"/>
    <type id="highway.step" priority="1" numLanes="1" speed="1.39" allow="pedestrian" oneway="1" width="2.00"/>
    <type id="highway.steps" priority="1" numLanes="1" speed="1.39" allow="pedestrian" oneway="1" width="2.00"/>
    <type id="highway.tertiary" priority="10" numLanes="1" speed="22.22" disallow="tram rail_urban rail rail_electric rail_fast ship" oneway="0"/>
    <type id="highway.tertiary_link" priority="5" numLanes="1" speed="22.22" disallow="tram rail_urban rail rail_electric rail_fast ship" oneway="0"/>
    <type id="highway.track" priority="1" numLanes="1" speed="5.56" disallow="tram rail_urban rail rail_electric rail_fast ship" oneway="0"/>
    <type id="highway.trunk" priority="13" numLanes="2" speed="27.78" disallow="pedestrian bicycle tram rail_urban rail rail_electric rail_fast ship" oneway="0"/>
    <type id="highway.trunk_link" priority="8" numLanes="1" speed="22.22" disallow="pedestrian bicycle tram rail_urban rail rail_electric rail_fast ship" oneway="0"/>
    <type id="highway.unclassified" priority="4" numLanes="1" speed="13.89" disallow="tram rail_urban rail rail_electric rail_fast ship" oneway="0"/>
    <type id="highway.unsurfaced" priority="1" numLanes="1" speed="8.33" disallow="tram rail_urban rail rail_electric rail_fast ship" oneway="0"/>
    <type id="railway.highspeed" priority="21" numLanes="1" speed="69.44" allow="rail_fast" oneway="1"/>
    <type id="railway.light_rail" priority="19" numLanes="1" speed="27.78" allow="rail_urban" oneway="1"/>
    <type id="railway.preserved" priority="16" numLanes="1" speed="27.78" allow="rail" oneway="1"/>
    <type id="railway.rail" priority="20" numLanes="1" speed="44.44" allow="rail" oneway="1"/>
    <type id="railway.subway" priority="18" numLanes="1" speed="27.78" allow="rail_urban" oneway="1"/>
    <type id="railway.tram" priority="17" numLanes="1" speed="13.89" allow="tram" oneway="1"/>

    <edge id=":113807865_0" function="internal">
        <lane id=":113807865_0_0" index="0" disallow="pedestrian bicycle tram rail_urban rail rail_electric rail_fast ship" speed="3.65" length="4.67" shape="2967.22,1703.65 2965.88,1704.19 2965.00,1704.07 2964.56,1703.29 2964.58,1701.85"/>
    </edge>
    <edge id=":113834629_0" function="internal">
        <lane id=":113834629_0_0" index="0" disallow="tram rail_urban rail rail_electric rail_fast ship" speed="3.65" length="4.67" shape="1368.67,775.66 1369.32,774.37 1370.06,773.87 1370.91,774.17 1371.85,775.26"/>
    </edge>
    <edge id=":113850262_0" function="internal">
        <lane id=":113850262_0_0" index="0" disallow="tram rail_urban rail rail_electric rail_fast ship" speed="6.33" length="9.04" shape="748.51,1128.98 747.14,1126.88 745.45,1125.79 743.44,1125.70 741.10,1126.62"/>
    </edge>
    <edge id=":113850262_1" function="internal">
        <lane id=":113850262_1_0" index="0" disallow="tram rail_urban rail rail_electric rail_fast ship" speed="8.91" length="16.90" shape="748.51,1128.98 746.71,1123.90 746.46,1119.70 747.75,1116.37 750.58,1113.94"/>
    </edge>
    <edge id=":113850262_2" function="internal">
        <lane id=":113850262_2_0" index="0" disallow="tram rail_urban rail rail_electric rail_fast ship" speed="3.65" length="2.54" shape="748.51,1128.98 748.73,1127.55 749.28,1126.85 749.49,1126.86"/>
    </edge>
    <edge id=":113850262_11" function="internal">
        <lane id=":113850262_11_0" index="0" disallow="tram rail_urban rail rail_electric rail_fast ship" speed="3.65" length="2.13" shape="749.49,1126.86 750.18,1126.88 751.41,1127.63"/>
    </edge>
    <edge id=":113850262_3" function="internal">
        <lane id=":113850262_3_0" index="0" disallow="tram rail_urban rail rail_electric rail_fast ship" speed="6.81" length="9.44" shape="753.68,1119.53 751.74,1121.04 750.71,1122.89 750.60,1125.08 751.41,1127.63"/>
    </edge>
    <edge id=":113850262_4" function="internal">
        <lane id=":113850262_4_0" index="0" disallow="tram rail_urban rail rail_electric rail_fast ship" speed="15.65" length="14.46" shape="753.68,1119.53 741.10,1126.62"/>
        <lane id=":113850262_4_1" index="1" disallow="tram rail_urban rail rail_electric rail_fast ship" speed="15.65" length="14.46" shape="752.13,1116.73 739.52,1123.84"/>
    </edge>
    <edge id=":113850262_6" function="internal">
        <lane id=":113850262_6_0" index="0" disallow="tram rail_urban rail rail_electric rail_fast ship" speed="3.65" length="2.34" shape="752.13,1116.73 750.69,1116.62 749.96,1116.11"/>
    </edge>
    <edge id=":113850262_12" function="internal">
        <lane id=":113850262_12_0" index="0" disallow="tram rail_urban rail rail_electric rail_fast ship" speed="3.65" length="2.34" shape="749.96,1116.11 749.92,1115.22 750.58,1113.94"/>
    </edge>
    <edge id=":113850262_7" function="internal">
        <lane id=":113850262_7_0" index="0" disallow="tram rail_urban rail rail_electric rail_fast ship" speed="15.65" length="14.54" shape="736.34,1118.28 749.03,1111.14"/>
        <lane id=":113850262_7_1" index="1" disallow="tram rail_urban rail rail_electric rail_fast ship" speed="15.65" length="14.54" shape="737.93,1121.06 750.58,1113.94"/>
    </edge>
    <edge id=":113850262_9" function="internal">
        <lane id=":113850262_9_0" index="0" disallow="tram rail_urban rail rail_electric rail_fast ship" speed="8.53" length="5.49" shape="737.93,1121.06 741.86,1119.71 743.17,1119.95"/>
    </edge>
    <edge id=":113850262_10" function="internal">
        <lane id=":113850262_10_0" index="0" disallow="tram rail_urban rail rail_electric rail_fast ship" speed="3.65" length="2.34" shape="737.93,1121.06 739.37,1121.16 740.11,1121.66"/>
    </edge>
    <edge id=":113850262_13" function="internal">
        <lane id=":113850262_13_0" index="0" disallow="tram rail_urban rail rail_electric rail_fast ship" speed="8.53" length="11.84" shape="743.17,1119.95 745.42,1120.35 748.60,1122.99 751.41,1127.63"/>
    </edge>
    <edge id=":113850262_14" function="internal">
        <lane id=":113850262_14_0" index="0" disallow="tram rail_urban rail rail_electric rail_fast ship" speed="3.65" length="2.34" shape="740.11,1121.66 740.16,1122.55 739.52,1123.84"/>
    </edge>
    <edge id=":113850266_0" function="internal">
        <lane id=":113850266_0_0" index="0" disallow="tram rail_urban rail rail_electric rail_fast ship" speed="3.65" length="4.67" shape="771.47,1170.75 771.25,1172.17 770.69,1172.87 769.80,1172.85 768.57,1172.09"/>
    </edge>
    <edge id=":113874389_0" function="internal">
        <lane id=":113874389_0_0" index="0" disallow="tram rail_urban rail rail_electric rail_fast ship" speed="3.65" length="4.67" shape="316.10,2178.71 317.02,2179.82 317.17,2180.70 316.56,2181.35 315.18,2181.77"/>
    </edge>
    <edge id=":113874739_0" function="internal">
        <lane id=":113874739_0_0" index="0" disallow="tram rail_urban rail rail_electric rail_fast ship" speed="6.54" length="9.08" shape="2289.87,1130.54 2287.96,1128.94 2285.99,1128.32 2283.97,1128.69 2281.91,1130.05"/>
    </edge>
    <edge id=":113874739_1" function="internal">
        <lane id=":113874739_1_0" index="0" disallow="tram rail_urban rail rail_electric rail_fast ship" speed="8.94" length="14.50" shape="2289.87,1130.54 2280.27,1119.67"/>
    </edge>
    <edge id=":113874739_2" function="internal">
        <lane id=":113874739_2_0" index="0" disallow="tram rail_urban rail rail_electric rail_fast ship" speed="7.99" length="6.04" shape="2289.87,1130.54 2287.69,1127.30 2287.29,1125.20"/>
    </edge>
    <edge id=":113874739_3" function="internal">
        <lane id=":113874739_3_0" index="0" disallow="tram rail_urban rail rail_electric rail_fast ship" speed="3.65" length="2.34" shape="2289.87,1130.54 2289.66,1129.11 2289.99,1128.28"/>
    </edge>
    <edge id=":113874739_16" function="internal">
        <lane id=":113874739_16_0" index="0" disallow="tram rail_urban rail rail_electric rail_fast ship" speed="7.99" length="8.19" shape="2287.29,1125.20 2287.09,1124.15 2288.05,1121.08 2290.58,1118.10"/>
    </edge>
    <edge id=":113874739_17" function="internal">
        <lane id=":113874739_17_0" index="0" disallow="tram rail_urban rail rail_electric rail_fast ship" speed="3.65" length="2.34" shape="2289.99,1128.28 2290.85,1128.04 2292.25,1128.40"/>
    </edge>
    <edge id=":113874739_4" function="internal">
        <lane id=":113874739_4_0" index="0" disallow="tram rail_urban rail rail_electric rail_fast ship" speed="6.49" length="9.04" shape="2292.70,1120.50 2291.09,1122.39 2290.48,1124.34 2290.87,1126.34 2292.25,1128.40"/>
    </edge>
    <edge id=":113874739_5" function="internal">
        <lane id=":113874739_5_0" index="0" disallow="tram rail_urban rail rail_electric rail_fast ship" speed="13.89" length="14.41" shape="2292.70,1120.50 2281.91,1130.05"/>
    </edge>
    <edge id=":113874739_6" function="internal">
        <lane id=":113874739_6_0" index="0" disallow="tram rail_urban rail rail_electric rail_fast ship" speed="7.98" length="14.24" shape="2292.70,1120.50 2289.44,1122.65 2286.28,1123.23 2283.22,1122.24 2280.27,1119.67"/>
    </edge>
    <edge id=":113874739_7" function="internal">
        <lane id=":113874739_7_0" index="0" disallow="tram rail_urban rail rail_electric rail_fast ship" speed="3.65" length="4.67" shape="2292.70,1120.50 2291.27,1120.69 2290.44,1120.36 2290.21,1119.50 2290.58,1118.10"/>
    </edge>
    <edge id=":113874739_8" function="internal">
        <lane id=":113874739_8_0" index="0" disallow="tram rail_urban rail rail_electric rail_fast ship" speed="6.48" length="9.03" shape="2282.69,1117.58 2284.57,1119.20 2286.50,1119.83 2288.51,1119.47 2290.58,1118.10"/>
    </edge>
    <edge id=":113874739_9" function="internal">
        <lane id=":113874739_9_0" index="0" disallow="tram rail_urban rail rail_electric rail_fast ship" speed="8.94" length="14.43" shape="2282.69,1117.58 2292.25,1128.40"/>
    </edge>
    <edge id=":113874739_10" function="internal">
        <lane id=":113874739_10_0" index="0" disallow="tram rail_urban rail rail_electric rail_fast ship" speed="8.04" length="5.86" shape="2282.69,1117.58 2284.81,1120.86 2285.16,1122.79"/>
    </edge>
    <edge id=":113874739_11" function="internal">
        <lane id=":113874739_11_0" index="0" disallow="tram rail_urban rail rail_electric rail_fast ship" speed="3.65" length="2.34" shape="2282.69,1117.58 2282.87,1119.01 2282.53,1119.84"/>
    </edge>
    <edge id=":113874739_18" function="internal">
        <lane id=":113874739_18_0" index="0" disallow="tram rail_urban rail rail_electric rail_fast ship" speed="8.04" length="8.35" shape="2285.16,1122.79 2285.38,1124.03 2284.42,1127.09 2281.91,1130.05"/>
    </edge>
    <edge id=":113874739_19" function="internal">
        <lane id=":113874739_19_0" index="0" disallow="tram rail_urban rail rail_electric rail_fast ship" speed="3.65" length="2.34" shape="2282.53,1119.84 2281.66,1120.06 2280.27,1119.67"/>
    </edge>
    <edge id=":113874739_12" function="internal">
        <lane id=":113874739_12_0" index="0" disallow="tram rail_urban rail rail_electric rail_fast ship" speed="6.55" length="9.09" shape="2279.79,1127.65 2281.39,1125.76 2282.00,1123.81 2281.63,1121.77 2280.27,1119.67"/>
    </edge>
    <edge id=":113874739_13" function="internal">
        <lane id=":113874739_13_0" index="0" disallow="tram rail_urban rail rail_electric rail_fast ship" speed="13.89" length="14.41" shape="2279.79,1127.65 2290.58,1118.10"/>
    </edge>
    <edge id=":113874739_14" function="internal">
        <lane id=":113874739_14_0" index="0" disallow="tram rail_urban rail rail_electric rail_fast ship" speed="8.03" length="14.20" shape="2279.79,1127.65 2283.03,1125.52 2286.18,1124.94 2289.26,1125.90 2292.25,1128.40"/>
    </edge>
    <edge id=":113874739_15" function="internal">
        <lane id=":113874739_15_0" index="0" disallow="tram rail_urban rail rail_electric rail_fast ship" speed="3.65" length="4.67" shape="2279.79,1127.65 2281.22,1127.45 2282.05,1127.79 2282.28,1128.65 2281.91,1130.05"/>
    </edge>
    <edge id=":113874746_0" function="internal">
        <lane id=":113874746_0_0" index="0" disallow="tram rail_urban rail rail_electric rail_fast ship" speed="3.91" length="2.46" shape="2345.44,1075.33 2344.88,1074.96 2344.33,1074.84 2343.79,1074.98 2343.25,1075.37"/>
    </edge>
    <edge id=":113874746_1" function="internal">
        <lane id=":113874746_1_0" index="0" allow="pedestrian delivery bicycle" speed="6.09" length="7.39" shape="2341.01,1073.08 2342.63,1071.89 2344.27,1071.48 2345.92,1071.83 2347.58,1072.96"/>
    </edge>
    <edge id=":113874746_2" function="internal">
        <lane id=":113874746_2_0" index="0" disallow="tram rail_urban rail rail_electric rail_fast ship" speed="3.65" length="4.67" shape="2341.01,1073.08 2342.43,1072.82 2343.27,1073.11 2343.55,1073.96 2343.25,1075.37"/>
    </edge>
    <edge id=":113913026_0" function="internal">
        <lane id=":113913026_0_0" index="0" disallow="tram rail_urban rail rail_electric rail_fast ship" speed="6.69" length="9.33" shape="1384.27,880.95 1383.32,878.51 1381.87,876.93 1379.91,876.19 1377.45,876.31"/>
    </edge>
    <edge id=":113913026_1" function="internal">
        <lane id=":113913026_1_0" index="0" disallow="tram rail_urban rail rail_electric rail_fast ship" speed="22.22" length="21.25" shape="1384.27,880.95 1383.25,876.34 1382.08,870.56 1381.00,864.76 1380.23,860.10"/>
    </edge>
    <edge id=":113913026_2" function="internal">
        <lane id=":113913026_2_0" index="0" disallow="tram rail_urban rail rail_electric rail_fast ship" speed="8.55" length="8.28" shape="1384.27,880.95 1383.58,875.60 1384.15,872.77"/>
    </edge>
    <edge id=":113913026_16" function="internal">
        <lane id=":113913026_16_0" index="0" disallow="tram rail_urban rail rail_electric rail_fast ship" speed="8.55" length="8.98" shape="1384.15,872.77 1384.40,871.55 1386.75,868.82 1390.62,867.39"/>
    </edge>
    <edge id=":113913026_3" function="internal">
        <lane id=":113913026_3_0" index="0" disallow="tram rail_urban rail rail_electric rail_fast ship" speed="6.36" length="9.04" shape="1391.68,873.70 1389.29,874.46 1387.78,875.80 1387.15,877.71 1387.38,880.20"/>
    </edge>
    <edge id=":113913026_4" function="internal">
        <lane id=":113913026_4_0" index="0" disallow="tram rail_urban rail rail_electric rail_fast ship" speed="12.30" length="14.52" shape="1391.68,873.70 1377.45,876.31"/>
        <lane id=":113913026_4_1" index="1" disallow="tram rail_urban rail rail_electric rail_fast ship" speed="12.30" length="14.52" shape="1391.15,870.54 1376.82,873.18"/>
    </edge>
    <edge id=":113913026_6" function="internal">
        <lane id=":113913026_6_0" index="0" disallow="tram rail_urban rail rail_electric rail_fast ship" speed="8.70" length="5.35" shape="1391.15,870.54 1387.02,870.47 1385.95,869.87"/>
    </edge>
    <edge id=":113913026_7" function="internal">
        <lane id=":113913026_7_0" index="0" disallow="tram rail_urban rail rail_electric rail_fast ship" speed="3.65" length="2.34" shape="1391.15,870.54 1389.83,869.95 1389.31,869.23"/>
    </edge>
    <edge id=":113913026_17" function="internal">
        <lane id=":113913026_17_0" index="0" disallow="tram rail_urban rail rail_electric rail_fast ship" speed="8.70" length="11.87" shape="1385.95,869.87 1383.83,868.70 1381.56,865.25 1380.23,860.10"/>
    </edge>
    <edge id=":113913026_18" function="internal">
        <lane id=":113913026_18_0" index="0" disallow="tram rail_urban rail rail_electric rail_fast ship" speed="3.65" length="2.34" shape="1389.31,869.23 1389.57,868.37 1390.62,867.39"/>
    </edge>
    <edge id=":113913026_8" function="internal">
        <lane id=":113913026_8_0" index="0" disallow="tram rail_urban rail rail_electric rail_fast ship" speed="6.55" length="9.30" shape="1383.39,859.64 1384.12,862.02 1385.47,863.57 1387.47,864.31 1390.09,864.23"/>
    </edge>
    <edge id=":113913026_9" function="internal">
        <lane id=":113913026_9_0" index="0" disallow="tram rail_urban rail rail_electric rail_fast ship" speed="22.22" length="20.95" shape="1383.39,859.64 1384.15,864.26 1385.22,869.95 1386.36,875.63 1387.38,880.20"/>
    </edge>
    <edge id=":113913026_10" function="internal">
        <lane id=":113913026_10_0" index="0" disallow="tram rail_urban rail rail_electric rail_fast ship" speed="8.84" length="7.58" shape="1383.39,859.64 1383.63,864.93 1383.07,867.15"/>
    </edge>
    <edge id=":113913026_19" function="internal">
        <lane id=":113913026_19_0" index="0" disallow="tram rail_urban rail rail_electric rail_fast ship" speed="8.84" length="9.25" shape="1383.07,867.15 1382.61,868.95 1380.34,871.70 1376.82,873.18"/>
    </edge>
    <edge id=":113913026_11" function="internal">
        <lane id=":113913026_11_0" index="0" disallow="tram rail_urban rail rail_electric rail_fast ship" speed="6.72" length="9.30" shape="1375.55,866.91 1377.91,866.06 1379.47,864.65 1380.24,862.66 1380.23,860.10"/>
    </edge>
    <edge id=":113913026_12" function="internal">
        <lane id=":113913026_12_0" index="0" disallow="tram rail_urban rail rail_electric rail_fast ship" speed="12.30" length="14.73" shape="1375.55,866.91 1390.09,864.23"/>
        <lane id=":113913026_12_1" index="1" disallow="tram rail_urban rail rail_electric rail_fast ship" speed="12.30" length="14.73" shape="1376.18,870.04 1390.62,867.39"/>
    </edge>
    <edge id=":113913026_14" function="internal">
        <lane id=":113913026_14_0" index="0" disallow="tram rail_urban rail rail_electric rail_fast ship" speed="8.82" length="5.27" shape="1376.18,870.04 1380.01,870.04 1381.28,870.73"/>
    </edge>
    <edge id=":113913026_15" function="internal">
        <lane id=":113913026_15_0" index="0" disallow="tram rail_urban rail rail_electric rail_fast ship" speed="3.65" length="2.34" shape="1376.18,870.04 1377.52,870.59 1378.07,871.29"/>
    </edge>
    <edge id=":113913026_20" function="internal">
        <lane id=":113913026_20_0" index="0" disallow="tram rail_urban rail rail_electric rail_fast ship" speed="8.82" length="11.69" shape="1381.28,870.73 1383.15,871.74 1385.61,875.12 1387.38,880.20"/>
    </edge>
    <edge id=":113913026_21" function="internal">
        <lane id=":113913026_21_0" index="0" disallow="tram rail_urban rail rail_electric rail_fast ship" speed="3.65" length="2.34" shape="1378.07,871.29 1377.83,872.16 1376.82,873.18"/>
    </edge>
    <edge id=":113915568_0" function="internal">
        <lane id=":113915568_0_0" index="0" disallow="pedestrian bicycle tram rail_urban rail rail_electric rail_fast ship" speed="7.27" length="10.66" shape="3016.11,1648.01 3013.62,1647.15 3011.27,1647.36 3009.08,1648.64 3007.03,1651.00"/>
    </edge>
    <edge id=":113915568_1" function="internal">
        <lane id=":113915568_1_0" index="0" disallow="tram rail_urban rail rail_electric rail_fast ship" speed="8.94" length="21.36" shape="3016.11,1648.01 2997.15,1638.18"/>
    </edge>
    <edge id=":113915568_2" function="internal">
        <lane id=":113915568_2_0" index="0" disallow="pedestrian bicycle tram rail_urban rail rail_electric rail_fast ship" speed="8.61" length="7.46" shape="3016.11,1648.01 3011.73,1644.97 3010.45,1643.27"/>
    </edge>
    <edge id=":113915568_3" function="internal">
        <lane id=":113915568_3_0" index="0" disallow="tram rail_urban rail rail_electric rail_fast ship" speed="3.65" length="2.34" shape="3016.11,1648.01 3015.44,1646.73 3015.47,1645.84"/>
    </edge>
    <edge id=":113915568_18" function="internal">
        <lane id=":113915568_18_0" index="0" disallow="pedestrian bicycle tram rail_urban rail rail_electric rail_fast ship" speed="8.61" length="9.58" shape="3010.45,1643.27 3009.25,1641.69 3008.69,1638.15 3010.05,1634.37"/>
    </edge>
    <edge id=":113915568_19" function="internal">
        <lane id=":113915568_19_0" index="0" disallow="tram rail_urban rail rail_electric rail_fast ship" speed="3.65" length="2.34" shape="3015.47,1645.84 3016.21,1645.33 3017.64,1645.20"/>
    </edge>
    <edge id=":113915568_4" function="internal">
        <lane id=":113915568_4_0" index="0" disallow="tram rail_urban rail rail_electric rail_fast ship" speed="6.43" length="9.03" shape="3015.56,1637.62 3014.61,1639.92 3014.64,1641.95 3015.65,1643.71 3017.64,1645.20"/>
    </edge>
    <edge id=":113915568_5" function="internal">
        <lane id=":113915568_5_0" index="0" disallow="pedestrian bicycle tram rail_urban rail rail_electric rail_fast ship" speed="20.12" length="15.76" shape="3015.56,1637.62 3007.03,1651.00"/>
        <lane id=":113915568_5_1" index="1" disallow="pedestrian bicycle tram rail_urban rail rail_electric rail_fast ship" speed="20.12" length="15.76" shape="3012.80,1636.00 3004.38,1649.20"/>
    </edge>
    <edge id=":113915568_7" function="internal">
        <lane id=":113915568_7_0" index="0" disallow="tram rail_urban rail rail_electric rail_fast ship" speed="9.11" length="5.66" shape="3012.80,1636.00 3010.13,1639.01 3008.61,1639.60"/>
    </edge>
    <edge id=":113915568_8" function="internal">
        <lane id=":113915568_8_0" index="0" disallow="pedestrian bicycle tram rail_urban rail rail_electric rail_fast ship" speed="3.65" length="2.34" shape="3012.80,1636.00 3011.50,1636.62 3010.61,1636.56"/>
    </edge>
    <edge id=":113915568_20" function="internal">
        <lane id=":113915568_20_0" index="0" disallow="tram rail_urban rail rail_electric rail_fast ship" speed="9.11" length="11.96" shape="3008.61,1639.60 3006.62,1640.37 3002.30,1640.10 2997.15,1638.18"/>
    </edge>
    <edge id=":113915568_21" function="internal">
        <lane id=":113915568_21_0" index="0" disallow="pedestrian bicycle tram rail_urban rail rail_electric rail_fast ship" speed="3.65" length="2.34" shape="3010.61,1636.56 3010.13,1635.81 3010.05,1634.37"/>
    </edge>
    <edge id=":113915568_9" function="internal">
        <lane id=":113915568_9_0" index="0" disallow="pedestrian bicycle tram rail_urban rail rail_electric rail_fast ship" speed="7.07" length="10.21" shape="2998.56,1635.31 3001.20,1636.18 3003.54,1636.04 3005.57,1634.90 3007.29,1632.74"/>
    </edge>
    <edge id=":113915568_10" function="internal">
        <lane id=":113915568_10_0" index="0" disallow="tram rail_urban rail rail_electric rail_fast ship" speed="8.94" length="21.49" shape="2998.56,1635.31 3017.64,1645.20"/>
    </edge>
    <edge id=":113915568_11" function="internal">
        <lane id=":113915568_11_0" index="0" disallow="pedestrian bicycle tram rail_urban rail rail_electric rail_fast ship" speed="8.45" length="8.09" shape="2998.56,1635.31 3003.22,1638.29 3004.77,1640.33"/>
    </edge>
    <edge id=":113915568_12" function="internal">
        <lane id=":113915568_12_0" index="0" disallow="tram rail_urban rail rail_electric rail_fast ship" speed="3.65" length="2.34" shape="2998.56,1635.31 2999.29,1636.56 2999.29,1637.45"/>
    </edge>
    <edge id=":113915568_22" function="internal">
        <lane id=":113915568_22_0" index="0" disallow="pedestrian bicycle tram rail_urban rail rail_electric rail_fast ship" speed="8.45" length="9.58" shape="3004.77,1640.33 3005.74,1641.60 3006.13,1645.24 3004.38,1649.20"/>
    </edge>
    <edge id=":113915568_23" function="internal">
        <lane id=":113915568_23_0" index="0" disallow="tram rail_urban rail rail_electric rail_fast ship" speed="3.65" length="2.34" shape="2999.29,1637.45 2998.58,1637.99 2997.15,1638.18"/>
    </edge>
    <edge id=":113915568_13" function="internal">
        <lane id=":113915568_13_0" index="0" disallow="tram rail_urban rail rail_electric rail_fast ship" speed="6.22" length="9.05" shape="2999.10,1645.59 3000.21,1643.32 3000.26,1641.32 2999.24,1639.61 2997.15,1638.18"/>
    </edge>
    <edge id=":113915568_14" function="internal">
        <lane id=":113915568_14_0" index="0" disallow="pedestrian bicycle tram rail_urban rail rail_electric rail_fast ship" speed="20.12" length="15.34" shape="2999.10,1645.59 3007.29,1632.74"/>
        <lane id=":113915568_14_1" index="1" disallow="pedestrian bicycle tram rail_urban rail rail_electric rail_fast ship" speed="20.12" length="15.34" shape="3001.74,1647.39 3010.05,1634.37"/>
    </edge>
    <edge id=":113915568_16" function="internal">
        <lane id=":113915568_16_0" index="0" disallow="tram rail_urban rail rail_electric rail_fast ship" speed="9.26" length="5.55" shape="3001.74,1647.39 3004.76,1644.28 3005.89,1643.85"/>
    </edge>
    <edge id=":113915568_17" function="internal">
        <lane id=":113915568_17_0" index="0" disallow="pedestrian bicycle tram rail_urban rail rail_electric rail_fast ship" speed="3.65" length="2.34" shape="3001.74,1647.39 3003.08,1646.85 3003.96,1646.97"/>
    </edge>
    <edge id=":113915568_24" function="internal">
        <lane id=":113915568_24_0" index="0" disallow="tram rail_urban rail rail_electric rail_fast ship" speed="9.26" length="12.33" shape="3005.89,1643.85 3008.42,1642.88 3012.71,1643.19 3017.64,1645.20"/>
    </edge>
    <edge id=":113915568_25" function="internal">
        <lane id=":113915568_25_0" index="0" disallow="pedestrian bicycle tram rail_urban rail rail_electric rail_fast ship" speed="3.65" length="2.34" shape="3003.96,1646.97 3004.40,1647.75 3004.38,1649.20"/>
    </edge>
    <edge id=":113915656_0" function="internal">
        <lane id=":113915656_0_0" index="0" disallow="tram rail_urban rail rail_electric rail_fast ship" speed="6.38" length="9.04" shape="1241.59,914.57 1240.56,912.30 1239.06,910.95 1237.09,910.52 1234.64,911.01"/>
    </edge>
    <edge id=":113915656_1" function="internal">
        <lane id=":113915656_1_0" index="0" disallow="tram rail_urban rail rail_electric rail_fast ship" speed="8.69" length="17.05" shape="1241.59,914.57 1240.64,909.29 1241.18,905.17 1243.22,902.22 1246.74,900.45"/>
    </edge>
    <edge id=":113915656_2" function="internal">