<?xml version="1.0" encoding="UTF-8"?>

<!-- generated on 05/17/20 00:00:28 by Eclipse SUMO duarouter Version 1.3.1
<configuration xmlns:xsi="http://www.w3.org/2001/XMLSchema-instance" xsi:noNamespaceSchemaLocation="http://sumo.dlr.de/xsd/duarouterConfiguration.xsd">

    <input>
        <net-file value="map.net.xml"/>
        <route-files value="trips.trips.xml"/>
    </input>

    <output>
        <output-file value="map.rou.xml"/>
        <alternatives-output value="map.rou.alt.xml"/>
    </output>

    <time>
        <begin value="0"/>
        <end value="2.0"/>
    </time>

    <report>
        <no-warnings value="true"/>
        <ignore-errors value="true"/>
        <no-step-log value="true"/>
    </report>

</configuration>
-->

<routes xmlns:xsi="http://www.w3.org/2001/XMLSchema-instance" xsi:noNamespaceSchemaLocation="http://sumo.dlr.de/xsd/routes_file.xsd">
    <vehicle id="0" depart="0.00">
        <route edges="-724068308#16 -724068308#15 -724068308#14 -724068308#13 -724068308#12"/>
    </vehicle>
<vehicle id="1" depart="1.00">
        <route edges="-724068308#16 -724068308#15 -724068308#14 -724068308#13 -724068308#12"/>
    </vehicle>
<vehicle id="2" depart="2.00">
        <route edges="-724068308#16 -724068308#15 -724068308#14 -724068308#13 -724068308#12"/>
    </vehicle>
<vehicle id="3" depart="3.00">
        <route edges="-724068308#16 -724068308#15 -724068308#14 -724068308#13 -724068308#12"/>
    </vehicle>
<vehicle id="4" depart="4.00">
        <route edges="-724068308#16 -724068308#15 -724068308#14 -724068308#13 -724068308#12"/>
    </vehicle>
<vehicle id="5" depart="5.00">
        <route edges="-724068308#16 -724068308#15 -724068308#14 -724068308#13 -724068308#12"/>
    </vehicle>
<vehicle id="6" depart="6.00">
        <route edges="-724068308#16 -724068308#15 -724068308#14 -724068308#13 -724068308#12"/>
    </vehicle>
<vehicle id="7" depart="7.00">
        <route edges="-724068308#16 -724068308#15 -724068308#14 -724068308#13 -724068308#12"/>
    </vehicle>
<vehicle id="8" depart="8.00">
        <route edges="-724068308#16 -724068308#15 -724068308#14 -724068308#13 -724068308#12"/>
    </vehicle>
<vehicle id="9" depart="9.00">
        <route edges="-724068308#16 -724068308#15 -724068308#14 -724068308#13 -724068308#12"/>
    </vehicle>
    </routes>
