<?xml version="1.0" encoding="UTF-8"?>
<!-- generated on 2020-05-17 00:00:27.114000 by $Id$
  options: -n map.net.xml -r map.rou.xml -e 2 -l
-->
<routes xmlns:xsi="http://www.w3.org/2001/XMLSchema-instance" xsi:noNamespaceSchemaLocation="http://sumo.dlr.de/xsd/routes_file.xsd">
    <trip id="0" depart="0.00" from="23968302#2" to="-27049802#5"/>
    <trip id="1" depart="1.00" from="724068308#2" to="724068308#8"/>
</routes>
